11
19.193883 19.193883 19.193883
C	9.596942	9.596942	10.719636
C	10.777596	9.596942	9.789717
C	10.329840	9.596942	8.511148
C	8.864044	9.596942	8.511148
C	8.416288	9.596942	9.789717
H	7.379386	9.596942	10.119038
H	8.245677	9.596942	7.614415
H	9.596942	8.717178	11.389045
H	9.596942	10.476706	11.389045
H	11.814498	9.596942	10.119038
H	10.948207	9.596942	7.614415
