18

C	9.767740	10.479956	10.471911
C	9.767740	11.007838	9.202159
S	9.767740	9.767740	8.006729
C	9.767740	8.527642	9.202159
C	9.767740	9.055524	10.471911
H	9.767740	12.051866	8.904134
H	9.767740	11.090674	11.373262
H	9.767740	8.444806	11.373262
H	9.767740	7.483614	8.904134
C	13.767740	10.479956	10.471911
C	13.767740	11.007838	9.202159
S	13.767740	9.767740	8.006729
C	13.767740	8.527642	9.202159
C	13.767740	9.055524	10.471911
H	13.767740	12.051866	8.904134
H	13.767740	11.090674	11.373262
H	13.767740	8.444806	11.373262
H	13.767740	7.483614	8.904134
