18

C	9.288644	10.387504	8.717266
O	9.288644	9.288644	7.898889
C	9.288644	8.189784	8.717266
C	9.288644	8.571422	10.027533
C	9.288644	10.005866	10.027533
H	9.288644	11.347537	8.214683
H	9.288644	10.664081	10.889970
H	9.288644	7.913207	10.889970
H	9.288644	7.229751	8.214683
C	12.788644	10.387504	8.717266
O	12.788644	9.288644	7.898889
C	12.788644	8.189784	8.717266
C	12.788644	8.571422	10.027533
C	12.788644	10.005866	10.027533
H	12.788644	11.347537	8.214683
H	12.788644	10.664081	10.889970
H	12.788644	7.913207	10.889970
H	12.788644	7.229751	8.214683
