12

C	5.532049	6.198049	6.198049
C	6.864049	6.198049	6.198049
H	4.957748	6.198049	5.269264
H	4.957748	6.198049	7.126834
H	7.438350	6.198049	7.126834
H	7.438350	6.198049	5.269264
C	5.532049	11.198049	6.198049
C	6.864049	11.198049	6.198049
H	4.957748	11.198049	5.269264
H	4.957748	11.198049	7.126834
H	7.438350	11.198049	7.126834
H	7.438350	11.198049	5.269264
