22

C	9.596942	9.596942	10.719636
C	10.777596	9.596942	9.789717
C	10.329840	9.596942	8.511148
C	8.864044	9.596942	8.511148
C	8.416288	9.596942	9.789717
H	7.379386	9.596942	10.119038
H	8.245677	9.596942	7.614415
H	9.596942	8.717178	11.389045
H	9.596942	10.476706	11.389045
H	11.814498	9.596942	10.119038
H	10.948207	9.596942	7.614415
C	9.596942	13.596942	10.719636
C	10.777596	13.596942	9.789717
C	10.329840	13.596942	8.511148
C	8.864044	13.596942	8.511148
C	8.416288	13.596942	9.789717
H	7.379386	13.596942	10.119038
H	8.245677	13.596942	7.614415
H	9.596942	12.717178	11.389045
H	9.596942	14.476706	11.389045
H	11.814498	13.596942	10.119038
H	10.948207	13.596942	7.614415
