26

C	12.322190	10.589559	11.853609
C	12.989359	11.821044	11.853609
C	12.257137	13.015359	11.853609
C	10.860845	12.973772	11.853609
C	10.188225	11.749765	11.853609
C	10.927984	10.562295	11.853609
O	14.362480	11.796597	11.853609
H	12.779882	13.975808	11.853609
H	10.298404	13.908702	11.853609
H	9.098566	11.720511	11.853609
H	10.413982	9.599813	11.853609
H	12.908335	9.670285	11.853609
H	14.689540	12.713408	11.853609
C	12.322190	10.589559	16.853609
C	12.989359	11.821044	16.853609
C	12.257137	13.015359	16.853609
C	10.860845	12.973772	16.853609
C	10.188225	11.749765	16.853609
C	10.927984	10.562295	16.853609
O	14.362480	11.796597	16.853609
H	12.779882	13.975808	16.853609
H	10.298404	13.908702	16.853609
H	9.098566	11.720511	16.853609
H	10.413982	9.599813	16.853609
H	12.908335	9.670285	16.853609
H	14.689540	12.713408	16.853609
